4650
  -OEChem-07152011303D

 12 12  0     0  0  0  0  0  0999 V2000
    2.6606    0.0001    0.0010 O   0  0  0  0  0  0  0  0  0  0  0  0
   -2.6606    0.0001    0.0008 O   0  0  0  0  0  0  0  0  0  0  0  0
    1.4346   -0.0001   -0.0002 C   0  0  0  0  0  0  0  0  0  0  0  0
   -1.4346    0.0001    0.0000 C   0  0  0  0  0  0  0  0  0  0  0  0
    0.6673    1.2627   -0.0005 C   0  0  0  0  0  0  0  0  0  0  0  0
    0.6673   -1.2628   -0.0005 C   0  0  0  0  0  0  0  0  0  0  0  0
   -0.6673    1.2628   -0.0004 C   0  0  0  0  0  0  0  0  0  0  0  0
   -0.6674   -1.2628   -0.0003 C   0  0  0  0  0  0  0  0  0  0  0  0
    1.2256    2.1921   -0.0005 H   0  0  0  0  0  0  0  0  0  0  0  0
    1.2256   -2.1922   -0.0006 H   0  0  0  0  0  0  0  0  0  0  0  0
   -1.2256    2.1922   -0.0004 H   0  0  0  0  0  0  0  0  0  0  0  0
   -1.2258   -2.1922   -0.0004 H   0  0  0  0  0  0  0  0  0  0  0  0
  1  3  2  0  0  0  0
  2  4  2  0  0  0  0
  3  5  1  0  0  0  0
  3  6  1  0  0  0  0
  4  7  1  0  0  0  0
  4  8  1  0  0  0  0
  5  7  2  0  0  0  0
  5  9  1  0  0  0  0
  6  8  2  0  0  0  0
  6 10  1  0  0  0  0
  7 11  1  0  0  0  0
  8 12  1  0  0  0  0
M  END
> <PUBCHEM_COMPOUND_CID>
4650

> <PUBCHEM_CONFORMER_RMSD>
0.4

> <PUBCHEM_CONFORMER_DIVERSEORDER>
1

> <PUBCHEM_MMFF94_PARTIAL_CHARGES>
12
1 -0.57
10 0.15
11 0.15
12 0.15
2 -0.57
3 0.54
4 0.54
5 -0.14
6 -0.14
7 -0.14
8 -0.14
9 0.15

> <PUBCHEM_EFFECTIVE_ROTOR_COUNT>
0

> <PUBCHEM_PHARMACOPHORE_FEATURES>
3
1 1 acceptor
1 2 acceptor
6 3 4 5 6 7 8 rings

> <PUBCHEM_HEAVY_ATOM_COUNT>
8

> <PUBCHEM_ATOM_DEF_STEREO_COUNT>
0

> <PUBCHEM_ATOM_UDEF_STEREO_COUNT>
0

> <PUBCHEM_BOND_DEF_STEREO_COUNT>
0

> <PUBCHEM_BOND_UDEF_STEREO_COUNT>
0

> <PUBCHEM_ISOTOPIC_ATOM_COUNT>
0

> <PUBCHEM_COMPONENT_COUNT>
1

> <PUBCHEM_CACTVS_TAUTO_COUNT>
1

> <PUBCHEM_CONFORMER_ID>
0000122A00000001

> <PUBCHEM_MMFF94_ENERGY>
14.566

> <PUBCHEM_FEATURE_SELFOVERLAP>
15.223

> <PUBCHEM_SHAPE_FINGERPRINT>
16714656 1 18410858763153178310
18185500 45 18410852178799625383
20096714 4 18338516446990406515
21040471 1 18410574032406660390
23235685 24 18410853261105003684
23402655 69 18195226842815400357
23552423 10 18045228141500184014
29004967 10 18333739004632822897
5084963 1 18272651250858262065

> <PUBCHEM_SHAPE_MULTIPOLES>
152.9
2.75
1.45
0.59
0
0
0
0
0
0
0
0
0
0

> <PUBCHEM_SHAPE_SELFOVERLAP>
317.406

> <PUBCHEM_SHAPE_VOLUME>
86.4

> <PUBCHEM_COORDINATE_TYPE>
2
5
10

$$$$
